19
Gaussian input prepared by ASE
C          3.19368        0.36103       -0.86843
H          3.18374        1.45650       -0.85226
H          4.15246        0.00051       -0.47841
H          3.10420        0.01645       -1.90658
C          2.07115       -0.25431       -0.05108
O          2.00228       -1.48236        0.14565
N          1.14458        0.61747        0.44879
H          1.17265        1.59250        0.18826
C         -0.04208        0.15720        1.15206
H         -0.17131        0.72590        2.08269
H          0.10828       -0.89860        1.39739
C         -1.28286        0.38793        0.28169
O         -1.51325        1.51326       -0.20182
N         -2.09350       -0.67906        0.08104
H         -1.81179       -1.58630        0.42013
C         -3.30189       -0.57001       -0.73144
H         -3.91758       -1.46126       -0.57932
H         -3.86484        0.32054       -0.43147
H         -3.05354       -0.47332       -1.79676
