19
Gaussian input prepared by ASE
C         -3.59271        0.77920       -0.00009
H         -3.31641        1.83985        0.00048
H         -4.19360        0.55570       -0.88888
H         -4.19428        0.55490        0.88803
C         -2.37093       -0.16223       -0.00001
O         -2.54182       -1.39885       -0.00009
N         -1.09930        0.35546        0.00012
H         -0.90046        1.34809        0.00018
C          0.05174       -0.55053        0.00017
H          0.00062       -1.20681       -0.88210
H          0.00072       -1.20663        0.88259
C          1.39768        0.21111        0.00005
O          1.43986        1.45362       -0.00000
N          2.50933       -0.59073       -0.00002
H          2.36356       -1.59111        0.00004
C          3.91636       -0.12551       -0.00011
H          4.43428       -0.48328       -0.89761
H          3.90381        0.96873       -0.00025
H          4.43431       -0.48302        0.89746
