6
Title Card Required
C          0.68485       -0.02290       -0.00000
H          1.08036        0.99483        0.00066
H          1.03884       -0.54798        0.89820
H          1.03895       -0.54688       -0.89880
O         -0.75654        0.12140       -0.00000
H         -1.21495       -0.73375       -0.00001
