26
Gaussian input prepared by ASE
C          2.68579       -1.77423       -0.48170
H          3.52597       -1.20803       -0.05795
H          2.81692       -2.83821       -0.26978
H          2.68541       -1.61812       -1.56926
C          1.36393       -1.33312        0.13289
O          0.61010       -2.14823        0.72022
N          1.03503       -0.01856        0.03179
C          1.85783        1.01988       -0.62791
H          2.01399        0.77809       -1.68652
H          2.83987        1.09393       -0.13541
C          1.03281        2.31202       -0.42583
H          0.30577        2.43506       -1.23833
H          1.67084        3.20207       -0.38263
C          0.27373        2.04653        0.89864
H         -0.61162        2.67914        1.00243
H          0.93619        2.19513        1.76260
C         -0.10436        0.55518        0.79063
H         -0.15493        0.04952        1.76385
C         -1.46475        0.35887        0.07029
O         -2.07895        1.31797       -0.44111
N         -1.95224       -0.90272        0.08279
H         -1.35812       -1.64235        0.44926
C         -3.26207       -1.21268       -0.48763
H         -3.55011       -2.22193       -0.17906
H         -4.00257       -0.49003       -0.12582
H         -3.24376       -1.15804       -1.58460
