6
Title Card Required
C          0.81917       -0.01774        0.00001
H          1.11354        1.02914       -0.00008
H          1.09460       -0.54231        0.91607
H          1.09463       -0.54249       -0.91593
O         -0.87527        0.11964       -0.00003
H         -1.21558       -0.79503        0.00006
